/*--------------------------------*- C++ -*----------------------------------*\
| =========                 |                                                 |
| \\      /  F ield         | OpenFOAM: The Open Source CFD Toolbox           |
|  \\    /   O peration     | Version:  1.7.1                                 |
|   \\  /    A nd           | Web:      www.OpenFOAM.com                      |
|    \\/     M anipulation  |                                                 |
\*---------------------------------------------------------------------------*/
FoamFile
{
    version     2.0;
    format      ascii;
    class       dictionary;
    object      blockMeshDict;
}
// * * * * * * * * * * * * * * * * * * * * * * * * * * * * * * * * * * * * * //

convertToMeters 1;

// normal depth
depth 0.50;
ndepth 16;
// square block dimension
width #calc "$depth*3.0";

xn1  #calc "$width*2.0";
xn2  #calc "$xn1+$width";
xn3  #calc "$xn2+1.50*$width";

yn1  #calc "$depth*3.0";
yn2  #calc "$depth*6.0";
yn3  #calc "$depth*9.0";

zn  #calc "$depth*2.5";

// alternatively, use value assignment for uneven grid
// NX1 #calc "$xn1/$depth*$ndepth";
// NX2 #calc "$width/$depth*$ndepth";
// NX3 #calc "($xn3-$xn2)/$depth*$ndepth";

// NY1 #calc "$yn1/$depth*$ndepth";
// NY2 #calc "$width/$depth*$ndepth";
// NY3 #calc "($yn3-$yn2)/$depth*$ndepth";

// NZ #calc "2.5*$ndepth";

NX1 96;
NX2 24;
NX3 36;

NY1 24;
NY2 24;
NY3 24;

NZ #calc "2.5*$ndepth";

//Cell expansion ratios
// xe_front 0.08428845675;
// ye_bottom 0.04583554871;
// ye_top 21.81870025;
// xe_back 13.45427455; 

xe_front 0.2853;
ye_bottom 0.281273;
ye_top 3.555;
xe_back 3.505; 

vertices
(
    //Foward vertices (0-7)
    (0 0 0)
    ($xn1 0 0)
    (0 $yn1 0)
    ($xn1 $yn1 0)
    (0 $yn2 0)
    ($xn1 $yn2 0)
    (0 $yn3 0)
    ($xn1 $yn3 0)

    //Rear vertices (8-15)
    ($xn2 0 0)
    ($xn3 0 0)
    ($xn2 $yn1 0)
    ($xn3 $yn1 0)
    ($xn2 $yn2 0)
    ($xn3 $yn2 0)
    ($xn2 $yn3 0)
    ($xn3 $yn3 0)

    //Z+ Foward vertices (16-23)
    (0 0 $zn)
    ($xn1 0 $zn)
    (0 $yn1 $zn)
    ($xn1 $yn1 $zn)
    (0 $yn2 $zn)
    ($xn1 $yn2 $zn)
    (0 $yn3 $zn)
    ($xn1 $yn3 $zn)

    //Z+ Rear vertices (24-31)
    ($xn2 0 $zn)
    ($xn3 0 $zn)
    ($xn2 $yn1 $zn)
    ($xn3 $yn1 $zn)
    ($xn2 $yn2 $zn)
    ($xn3 $yn2 $zn)
    ($xn2 $yn3 $zn)
    ($xn3 $yn3 $zn)
);

blocks
(
    //Forward blocks
    hex (0 1 3 2 16 17 19 18) ($NX1 $NY1 $NZ) simpleGrading ($xe_front $ye_bottom 1) // hex block 1
    hex (2 3 5 4 18 19 21 20) ($NX1 $NY2 $NZ) simpleGrading ($xe_front 1 1) // hex block 2
    hex (4 5 7 6 20 21 23 22) ($NX1 $NY3 $NZ) simpleGrading ($xe_front $ye_top 1) // hex block 3
    //Middle block
    hex (1 8 10 3 17 24 26 19) ($NX2 $NY1 $NZ) simpleGrading (1 $ye_bottom 1) // hex block 4
    hex (5 12 14 7 21 28 30 23) ($NX2 $NY3 $NZ) simpleGrading (1 $ye_top 1) // hex block 5
    //Rear blocks
    hex (8 9 11 10 24 25 27 26) ($NX3 $NY1 $NZ) simpleGrading ($xe_back $ye_bottom 1) // hex block 6
    hex (10 11 13 12 26 27 29 28) ($NX3 $NY2 $NZ) simpleGrading ($xe_back 1 1) // hex block 7
    hex (12 13 15 14 28 29 31 30) ($NX3 $NY3 $NZ) simpleGrading ($xe_back $ye_top 1) // hex block 8
);

edges
(
);

boundary
(
    fixedWalls
    {
        type wall;
        faces
        (
            //Channel walls
            (0 1 17 16)
            (6 7 23 22)
            (1 8 24 17)
            (7 14 30 23)
            (8 9 25 24)
            (14 15 31 30)            
        );
    }
    blockFaces
    {
        type wall;
        faces
        (
            (3 5 21 19)
            (5 12 28 21)
            (10 12 28 26)
            (3 10 26 19)
        );
    }
    
    inlet
    {
        type patch;
        faces
        (
		(0 2 18 16)
		(2 4 20 18)
		(4 6 22 20)
        );
    }
    outlet
    {
	
        type patch;
        faces
        (
		(9 11 27 25)
		(11 13 29 27)
		(13 15 31 29)
        );
	
    }
    sidewall_1
    {
	
        type cyclic;
	neighbourPatch sidewall_2;
        faces
        (
    		//Forward blocks
    		(0 1 3 2) 
    		(2 3 5 4) 
    		(4 5 7 6) 
    		//Middle block
    		(1 8 10 3) 
    		(5 12 14 7) 
    		//Rear blocks
    		(8 9 11 10) 
   		(10 11 13 12) 
    		(12 13 15 14) 
        );
	
    }

    sidewall_2
    {
	
        type cyclic;
	neighbourPatch sidewall_1;
        faces
        (
    		//Forward blocks
    		(16 17 19 18) 
    		(18 19 21 20) 
    		(20 21 23 22) 
    		//Middle block
    		(17 24 26 19) 
    		(21 28 30 23) 
    		//Rear blocks
    		(24 25 27 26) 
   		(26 27 29 28) 
    		(28 29 31 30) 
        );
	
    }
);

mergePatchPairs
(
);

// ************************************************************************* //