/*--------------------------------*- C++ -*----------------------------------*\
| =========                 |                                                 |
| \\      /  F ield         | OpenFOAM: The Open Source CFD Toolbox           |
|  \\    /   O peration     | Version:  2.1.0                                 |
|   \\  /    A nd           | Web:      www.OpenFOAM.org                      |
|    \\/     M anipulation  |                                                 |
\*---------------------------------------------------------------------------*/
FoamFile
{
    version     2.0;
    format      ascii;
    class       volScalarField;
    location    "10";
    object      pa;
}
// * * * * * * * * * * * * * * * * * * * * * * * * * * * * * * * * * * * * * //

dimensions      [1 -1 -2 0 0 0 0];

internalField   uniform 0;

boundaryField
{
    inlet
    {
        type            groovyBC;
        refValue        uniform 0;
        valueExpression "inletprofilepa(pos().z)";
        gradientExpression "0";
        fractionExpression "1";
        evaluateDuringConstruction 1;
        variables       "";
        timelines       (
);
        lookuptables    (
{
        name            inletprofilepa;
        file        "$FOAM_CASE/1d_profil/pa.xy";
        outOfBounds     clamp;
}
);
    }

    outlet
    {
        type            zeroGradient;
    }
    // inlet
    // {
    //     type            cyclic;
    // }
    // outlet
    // {
    //     type            cyclic;
    // }

    top
    {
        type            slip;
    }

    bottom
    {
        type            zeroGradient;
    }

    front
    {
        type            zeroGradient;
    }

    back
    {
        type            zeroGradient;
    }
}


// ************************************************************************* //
