/*--------------------------------*- C++ -*----------------------------------*\
| =========                 |                                                 |
| \\      /  F ield         | OpenFOAM: The Open Source CFD Toolbox           |
|  \\    /   O peration     | Version:  2.4.0                                 |
|   \\  /    A nd           | Web:      www.OpenFOAM.org                      |
|    \\/     M anipulation  |                                                 |
\*---------------------------------------------------------------------------*/
FoamFile
{
    version     2.0;
    format      ascii;
    class       volScalarField;
    location    "0";
    object      muI;
}
// * * * * * * * * * * * * * * * * * * * * * * * * * * * * * * * * * * * * * //

dimensions      [0 0 0 0 0 0 0];

internalField   uniform 0.; 

boundaryField
{
    inlet
    {
        type            groovyBC;
        refValue        uniform 0;
        valueExpression "inletprofilemuI(pos().y)";
        gradientExpression "0";
        fractionExpression "1";
        evaluateDuringConstruction 1;
        variables       "";
        timelines       (
);
        lookuptables    (
{
        name            inletprofilemuI;
        file        "$FOAM_CASE/1d_profil/muI.xy";
        outOfBounds     clamp;
}
);
    }
    outlet
    {
        type            zeroGradient;
    }
    // inlet
    // {
    //     type            cyclic;
    // }
    // outlet
    // {
    //     type            cyclic;
    // }
    top
    {
        type            zeroGradient;
    }
    bottom
    {
        type            zeroGradient;
    }
    frontAndBackPlanes
    {
        type            empty;
    }
}


// ************************************************************************* //
