/*--------------------------------*- C++ -*----------------------------------*\
| =========                 |                                                 |
| \\      /  F ield         | OpenFOAM: The Open Source CFD Toolbox           |
|  \\    /   O peration     | Version:  2.1.0                                 |
|   \\  /    A nd           | Web:      www.OpenFOAM.org                      |
|    \\/     M anipulation  |                                                 |
\*---------------------------------------------------------------------------*/
FoamFile
{
    version     2.0;
    format      ascii;
    class       dictionary;
    location    "system";
    object      setFieldsDict;
}
// * * * * * * * * * * * * * * * * * * * * * * * * * * * * * * * * * * * * * //

// set IC based on 1D simulations
expressions
 (
        sedimentvelocity{
	        field Ua; //field to initialise
	        fields
	        (
	                z Ua
	        );
	        lookuptables (
	        {
	                name inletprofilesedvelu;
	                outOfBounds clamp;
	                file "$FOAM_CASE/1d_profil/Ua0.xy";
	        }
	        {
	                name inletprofilesedvelv;
	                outOfBounds clamp;
	                file "$FOAM_CASE/1d_profil/Ua2.xy";
	        }
	        {
	                name inletprofilesedvelw;
	                outOfBounds clamp;
	                file "$FOAM_CASE/1d_profil/Ua1.xy";
	        }
	        );
                value uniform (1 0 0);
	        expression "vector(inletprofilesedvelu(pos().z),inletprofilesedvelv(pos().z),inletprofilesedvelw(pos().z))";
	        keepPatches 1;
        }

	fluidvelocity{
	        field Ub; //field to initialise
	        fields
	        (
	                z Ub
	        );
	        lookuptables (
	        {
	                name inletprofilefvelu;
	                outOfBounds clamp;
	                file "$FOAM_CASE/1d_profil/Ub0.xy";
	        }
	        {
	                name inletprofilefvelv;
	                outOfBounds clamp;
	                file "$FOAM_CASE/1d_profil/Ub2.xy";
	        }
	        {
	                name inletprofilefvelw;
	                outOfBounds clamp;
	                file "$FOAM_CASE/1d_profil/Ub1.xy";
	        }
	        );
                value uniform (1 0 0);
	        expression "vector(inletprofilefvelu(pos().z),inletprofilefvelv(pos().z),inletprofilefvelw(pos().z))";
	        keepPatches 1;
        }

        alpha{
                field alpha_a; //field to initialise
                fields
                (
                        z alpha_a
                );
                lookuptables (
                {
                        name inletprofilealpha;
                        outOfBounds clamp;
                        file "$FOAM_CASE/1d_profil/alpha_a.xy";
                }
                );
                expression "inletprofilealpha(pos().z)";
                keepPatches 1;
        }

        // use a traditional way to define pressure
        pa{
                field pa; //field to initialise
                fields
                (
                        z pa
                );
                lookuptables (
                {
                        name inletprofilepa;
                        outOfBounds clamp;
                        file "$FOAM_CASE/1d_profil/pa.xy";
                }
                );
                expression "inletprofilepa(pos().z)";
                keepPatches 1;
        }

        prbgh{
                field p_rbgh; //field to initialise
                fields
                (
                        z p_rbgh
                );
                lookuptables (
                {
                        name inletprofileprbgh;
                        outOfBounds clamp;
                        file "$FOAM_CASE/1d_profil/p_rbgh.xy";
                }
                );
                expression "inletprofileprbgh(pos().z)";
                keepPatches 1;
        }

        muI{
                field muI; //field to initialise
                fields
                (
                        z muI
                );
                lookuptables (
                {
                        name inletprofilemuI;
                        outOfBounds clamp;
                        file "$FOAM_CASE/1d_profil/muI.xy";
                }
                );
                expression "inletprofilemuI(pos().z)";
                keepPatches 1;
        }

 );

// ************************************************************************* //
